Circuit: * X:\My_Projects\Library\SPICE\Transformers\AM_Transformer_2x12V.asc

WARNING: Node N006 is floating.
WARNING: Node N004 is floating.

WARNING: Less than two connections to node N002.  This node is used by L2.
WARNING: Less than two connections to node N005.  This node is used by L4.
WARNING: Less than two connections to node N006.  This node is used by L4.
WARNING: Less than two connections to node N004.  This node is used by L3.
.OP point found by inspection.

Date: Wed Dec 23 00:49:57 2020
Total elapsed time: 0.270 seconds.

tnom = 27
temp = 27
method = modified trap
totiter = 6240
traniter = 6240
tranpoints = 1802
accept = 1567
rejected = 235
matrix size = 11
fillins = 18
solver = Normal
Matrix Compiler1: 2.14 KB object code size  0.5/0.2/[0.2]
Matrix Compiler2: 1.27 KB object code size  0.2/0.2/[0.2]

