Circuit: * X:\My_Projects\Library\SPICE\Transformers\AM_Transformer_2x12V.asc

WARNING: Less than two connections to node N002.  This node is used by L2.
.OP point found by inspection.

Date: Sat Sep 26 17:17:14 2020
Total elapsed time: 0.140 seconds.

tnom = 27
temp = 27
method = modified trap
totiter = 2096
traniter = 2096
tranpoints = 1049
accept = 1048
rejected = 1
matrix size = 5
fillins = 0
solver = Normal
Matrix Compiler1:       9 opcodes  0.2/[0.1]/0.1
Matrix Compiler2:      27 opcodes  0.1/[0.1]/0.1

