Circuit: * X:\My_Projects\Library\SPICE\Transformers\Draft3.asc

Direct Newton iteration for .op point succeeded.

Date: Sat Sep 26 18:15:03 2020
Total elapsed time: 1.190 seconds.

tnom = 27
temp = 27
method = modified trap
totiter = 84717
traniter = 84706
tranpoints = 29655
accept = 20108
rejected = 9547
matrix size = 18
fillins = 0
solver = Normal
Matrix Compiler1: 1.20 KB object code size  0.4/0.3/[0.2]
Matrix Compiler2: off  [0.2]/0.4/0.2

